Circuit: * P:\MIT\Lab\Whales\ECG\circuits\Draft1.asc

Direct Newton iteration for .op point succeeded.

Date: Sun Apr 10 22:48:02 2022
Total elapsed time: 0.038 seconds.

tnom = 27
temp = 27
method = modified trap
totiter = 1741
traniter = 1738
tranpoints = 870
accept = 681
rejected = 189
matrix size = 9
fillins = 2
solver = Normal
Matrix Compiler1: 492 bytes object code size  0.1/0.1/[0.0]
Matrix Compiler2: 681 bytes object code size  0.0/0.1/[0.0]

