Circuit: * P:\MIT\Lab\Whales\ECG\circuits\ecg_amp_filter.asc

Direct Newton iteration for .op point succeeded.

Date: Mon Apr 11 14:39:06 2022
Total elapsed time: 0.143 seconds.

tnom = 27
temp = 27
method = trap
totiter = 3
traniter = 0
tranpoints = 0
accept = 0
rejected = 0
matrix size = 19
fillins = 5
solver = Normal
Matrix Compiler1:      66 opcodes
Matrix Compiler2: 1.58 KB object code size
